Version 4.1
SHEET 1 1380 708
WIRE 864 -32 864 -48
WIRE 864 -32 816 -32
WIRE 864 -16 864 -32
WIRE 160 16 160 0
WIRE 208 16 160 16
WIRE 336 16 288 16
WIRE -224 64 -224 48
WIRE -224 64 -320 64
WIRE -112 64 -224 64
WIRE 864 64 864 48
WIRE 864 64 816 64
WIRE -224 80 -224 64
WIRE -112 80 -112 64
WIRE 864 80 864 64
WIRE -320 96 -320 64
WIRE 160 144 160 16
WIRE 224 144 160 144
WIRE 336 160 336 16
WIRE 336 160 288 160
WIRE 368 160 368 144
WIRE 368 160 336 160
WIRE 384 160 368 160
WIRE 464 160 448 160
WIRE 560 160 560 144
WIRE 560 160 528 160
WIRE 752 160 560 160
WIRE -112 176 -112 160
WIRE -96 176 -112 176
WIRE 16 176 -16 176
WIRE 48 176 16 176
WIRE 160 176 128 176
WIRE 224 176 160 176
WIRE 832 176 816 176
WIRE 864 176 864 160
WIRE 864 176 832 176
WIRE 160 192 160 176
WIRE 752 192 720 192
WIRE -112 208 -112 176
WIRE 448 208 448 160
WIRE 560 288 560 160
WIRE 560 288 512 288
WIRE -112 304 -112 272
WIRE 560 304 560 288
WIRE 624 304 624 288
WIRE 640 304 624 304
WIRE 720 304 720 192
WIRE 752 304 720 304
WIRE 832 304 832 176
WIRE 16 320 16 176
WIRE 224 320 16 320
WIRE 336 320 336 160
WIRE 336 320 288 320
WIRE 720 320 720 304
WIRE 560 368 512 368
WIRE -320 432 -320 160
WIRE -224 432 -224 160
WIRE -112 432 -112 384
WIRE 160 432 160 256
WIRE 448 432 448 288
WIRE 560 432 560 368
WIRE 720 432 720 400
FLAG -416 272 0
FLAG -416 192 +VCC
FLAG 256 128 +VCC
FLAG 160 -80 0
FLAG 160 432 0
FLAG 784 144 +VCC
FLAG 368 144 wyjscie_filtra
FLAG 720 192 REF
FLAG 560 144 PO_DIODZIE
FLAG 560 432 0
FLAG 624 288 +VCC
FLAG 864 -48 +VCC
FLAG 816 -32 A
FLAG 816 64 K
FLAG 784 208 0
FLAG 256 192 0
FLAG -112 432 0
FLAG 448 432 0
FLAG 720 432 0
FLAG -320 432 0
FLAG -224 432 0
FLAG -224 -32 +VCC
SYMBOL OpAmps\\UniversalOpAmp2 256 160 R0
SYMATTR InstName U1
SYMBOL voltage -416 176 R0
WINDOW 123 0 0 Left 0
WINDOW 39 0 0 Left 0
SYMATTR InstName V1
SYMATTR Value 9
SYMBOL cap 144 192 R0
SYMATTR InstName C2
SYMATTR Value 100n
SYMBOL res 0 160 R90
WINDOW 0 5 56 VBottom 2
WINDOW 3 27 56 VTop 2
SYMATTR InstName R1
SYMATTR Value 15k
SYMBOL res 304 0 R90
WINDOW 0 5 56 VBottom 2
WINDOW 3 27 56 VTop 2
SYMATTR InstName R3
SYMATTR Value 5.6k
SYMBOL res 144 -96 R0
SYMATTR InstName R4
SYMATTR Value 10k
SYMBOL res 144 160 R90
WINDOW 0 5 56 VBottom 2
WINDOW 3 27 56 VTop 2
SYMATTR InstName R2
SYMATTR Value 15k
SYMBOL cap 288 304 R90
WINDOW 0 0 32 VBottom 2
WINDOW 3 32 32 VTop 2
SYMATTR InstName C1
SYMATTR Value 100n
SYMBOL OpAmps\\UniversalOpAmp2 784 176 R0
SYMATTR InstName U2
SYMBOL LED 848 -16 R0
WINDOW 0 76 26 Left 2
SYMATTR InstName D1
SYMATTR Value NSPW500BS
SYMBOL res 736 288 R90
WINDOW 0 -17 72 VBottom 2
WINDOW 3 -23 61 VTop 2
SYMATTR InstName R7
SYMATTR Value 100k
SYMBOL res 704 416 M180
WINDOW 0 34 60 Left 2
WINDOW 3 31 40 Left 2
SYMATTR InstName R9
SYMATTR Value 3.3k
SYMBOL diode 464 144 M90
WINDOW 0 0 32 VBottom 2
WINDOW 3 32 32 VTop 2
SYMATTR InstName D3
SYMATTR Value 1N5817
SYMBOL voltage -112 288 R0
WINDOW 3 -156 112 Left 2
SYMATTR Value wavefile="u-got-that.wav" chan=0
SYMATTR InstName V4
SYMBOL cap 544 304 R0
SYMATTR InstName C3
SYMATTR Value 2.2µ
SYMBOL res 528 272 M0
SYMATTR InstName R10
SYMATTR Value 100k
SYMBOL res 736 320 R270
WINDOW 0 27 56 VTop 2
WINDOW 3 5 56 VBottom 2
SYMATTR InstName R6
SYMATTR Value 430k
SYMBOL res 848 64 R0
SYMATTR InstName R8
SYMATTR Value 390
SYMBOL res -208 64 M0
SYMATTR InstName R11
SYMATTR Value 10k
SYMBOL res -208 -48 M0
SYMATTR InstName R12
SYMATTR Value 10k
SYMBOL cap -304 96 M0
SYMATTR InstName C5
SYMATTR Value 10µ
SYMBOL cap 448 144 R90
WINDOW 0 0 32 VBottom 2
WINDOW 3 32 32 VTop 2
SYMATTR InstName C6
SYMATTR Value 1µ
SYMBOL res 432 192 R0
SYMATTR InstName R13
SYMATTR Value 100k
SYMBOL cap -96 208 M0
SYMATTR InstName C4
SYMATTR Value 1µ
SYMBOL res -96 64 M0
SYMATTR InstName R5
SYMATTR Value 100k
TEXT -64 432 Left 2 !.tran 184
TEXT -1072 -88 Left 2 ;100 mV voltage drop on 1N5817 at 30 uA\nusing shottky diode so the voltage drop is small
