Version 4.1
SHEET 1 880 680
WIRE 160 16 160 0
WIRE 208 16 160 16
WIRE 336 16 288 16
WIRE 528 48 512 48
WIRE 624 48 608 48
WIRE 160 144 160 16
WIRE 224 144 160 144
WIRE 336 160 336 16
WIRE 336 160 288 160
WIRE 368 160 368 144
WIRE 368 160 336 160
WIRE 512 160 512 48
WIRE 512 160 368 160
WIRE 544 160 512 160
WIRE -96 176 -112 176
WIRE 16 176 -16 176
WIRE 48 176 16 176
WIRE 160 176 128 176
WIRE 224 176 160 176
WIRE 624 176 624 48
WIRE 624 176 608 176
WIRE 672 176 624 176
WIRE 768 176 768 160
WIRE 768 176 752 176
WIRE 784 176 768 176
WIRE 848 176 832 176
WIRE -112 192 -112 176
WIRE 160 192 160 176
WIRE 544 192 512 192
WIRE 512 256 512 192
WIRE 512 256 480 256
WIRE 528 256 512 256
WIRE 512 288 512 256
WIRE 16 320 16 176
WIRE 224 320 16 320
WIRE 336 320 336 160
WIRE 336 320 288 320
WIRE -112 384 -112 272
WIRE 160 384 160 256
WIRE 512 384 512 368
WIRE 848 384 848 176
FLAG -544 320 0
FLAG -640 320 0
FLAG -640 240 +VCC
FLAG 256 128 +VCC
FLAG -544 240 -VCC
FLAG 256 192 -VCC
FLAG 160 -80 0
FLAG 160 384 0
FLAG -112 384 0
FLAG 576 208 +VCC
FLAG 576 144 -VCC
FLAG 848 384 0
FLAG 368 144 wyjscie_filtra
FLAG 768 160 DIODA
FLAG 512 384 0
FLAG 400 256 +VCC
FLAG 528 256 REF
SYMBOL OpAmps\\UniversalOpAmp2 256 160 R0
SYMATTR InstName U1
SYMBOL voltage -640 224 R0
WINDOW 123 0 0 Left 0
WINDOW 39 0 0 Left 0
SYMATTR InstName V1
SYMATTR Value 12
SYMBOL voltage -544 224 R0
WINDOW 123 0 0 Left 0
WINDOW 39 0 0 Left 0
SYMATTR InstName V2
SYMATTR Value -12
SYMBOL cap 144 192 R0
SYMATTR InstName C2
SYMATTR Value 100n
SYMBOL res 0 160 R90
WINDOW 0 5 56 VBottom 2
WINDOW 3 27 56 VTop 2
SYMATTR InstName R1
SYMATTR Value 15k
SYMBOL res 304 0 R90
WINDOW 0 5 56 VBottom 2
WINDOW 3 27 56 VTop 2
SYMATTR InstName R3
SYMATTR Value 5.6k
SYMBOL res 144 -96 R0
SYMATTR InstName R4
SYMATTR Value 10k
SYMBOL res 144 160 R90
WINDOW 0 5 56 VBottom 2
WINDOW 3 27 56 VTop 2
SYMATTR InstName R2
SYMATTR Value 15k
SYMBOL voltage -112 176 R0
WINDOW 0 -57 28 Left 2
WINDOW 3 -182 81 Left 2
WINDOW 123 -82 90 Left 2
WINDOW 39 0 0 Left 0
SYMATTR InstName V3
SYMATTR Value SINE(0 2 60)
SYMBOL cap 288 304 R90
WINDOW 0 0 32 VBottom 2
WINDOW 3 32 32 VTop 2
SYMATTR InstName C1
SYMATTR Value 100n
SYMBOL OpAmps\\UniversalOpAmp2 576 176 M180
SYMATTR InstName U2
SYMBOL res 624 32 R90
WINDOW 0 5 56 VBottom 2
WINDOW 3 27 56 VTop 2
SYMATTR InstName R6
SYMATTR Value 100k
SYMBOL res 768 160 R90
WINDOW 0 5 56 VBottom 2
WINDOW 3 27 56 VTop 2
SYMATTR InstName R8
SYMATTR Value 1k
SYMBOL LED 768 192 R270
WINDOW 0 72 32 VTop 2
WINDOW 3 0 32 VBottom 2
SYMATTR InstName D1
SYMBOL res 496 240 R90
WINDOW 0 5 56 VBottom 2
WINDOW 3 27 56 VTop 2
SYMATTR InstName R7
SYMATTR Value 100k
SYMBOL res 496 272 R0
SYMATTR InstName R9
SYMATTR Value 10k
TEXT -128 424 Left 2 !.tran 0.05
