Version 4.1
SHEET 1 1380 708
WIRE 768 -32 768 -48
WIRE 768 -32 720 -32
WIRE 768 -16 768 -32
WIRE 160 16 160 0
WIRE 208 16 160 16
WIRE 336 16 288 16
WIRE 768 64 768 48
WIRE 768 64 720 64
WIRE 768 80 768 64
WIRE 160 144 160 16
WIRE 224 144 160 144
WIRE 336 160 336 16
WIRE 336 160 288 160
WIRE 368 160 368 144
WIRE 368 160 336 160
WIRE 464 160 464 144
WIRE 464 160 432 160
WIRE 656 160 464 160
WIRE -96 176 -112 176
WIRE 16 176 -16 176
WIRE 48 176 16 176
WIRE 160 176 128 176
WIRE 224 176 160 176
WIRE 736 176 720 176
WIRE 768 176 768 160
WIRE 768 176 736 176
WIRE 160 192 160 176
WIRE 656 192 624 192
WIRE -112 208 -112 176
WIRE 544 272 528 272
WIRE 624 272 624 192
WIRE 464 288 464 160
WIRE 464 288 416 288
WIRE 464 304 464 288
WIRE 624 304 624 272
WIRE 624 304 608 304
WIRE 656 304 624 304
WIRE 736 304 736 176
WIRE 16 320 16 176
WIRE 224 320 16 320
WIRE 336 320 336 160
WIRE 336 320 288 320
WIRE 464 368 416 368
WIRE -112 384 -112 288
WIRE 160 384 160 256
WIRE 464 384 464 368
FLAG -544 320 0
FLAG -640 320 0
FLAG -640 240 +VCC
FLAG 256 128 +VCC
FLAG -544 240 -VCC
FLAG 256 192 -VCC
FLAG 160 -80 0
FLAG 160 384 0
FLAG -112 384 0
FLAG 688 144 +VCC
FLAG 688 208 -VCC
FLAG 368 144 wyjscie_filtra
FLAG 608 304 REF
FLAG 464 144 PO_DIODZIE
FLAG 464 384 0
FLAG 528 272 +VCC
FLAG 768 -48 +VCC
FLAG 720 -32 A
FLAG 720 64 K
FLAG 624 384 0
SYMBOL OpAmps\\UniversalOpAmp2 256 160 R0
SYMATTR InstName U1
SYMBOL voltage -640 224 R0
WINDOW 123 0 0 Left 0
WINDOW 39 0 0 Left 0
SYMATTR InstName V1
SYMATTR Value 12
SYMBOL voltage -544 224 R0
WINDOW 123 0 0 Left 0
WINDOW 39 0 0 Left 0
SYMATTR InstName V2
SYMATTR Value -12
SYMBOL cap 144 192 R0
SYMATTR InstName C2
SYMATTR Value 100n
SYMBOL res 0 160 R90
WINDOW 0 5 56 VBottom 2
WINDOW 3 27 56 VTop 2
SYMATTR InstName R1
SYMATTR Value 15k
SYMBOL res 304 0 R90
WINDOW 0 5 56 VBottom 2
WINDOW 3 27 56 VTop 2
SYMATTR InstName R3
SYMATTR Value 5.6k
SYMBOL res 144 -96 R0
SYMATTR InstName R4
SYMATTR Value 10k
SYMBOL res 144 160 R90
WINDOW 0 5 56 VBottom 2
WINDOW 3 27 56 VTop 2
SYMATTR InstName R2
SYMATTR Value 15k
SYMBOL cap 288 304 R90
WINDOW 0 0 32 VBottom 2
WINDOW 3 32 32 VTop 2
SYMATTR InstName C1
SYMATTR Value 100n
SYMBOL OpAmps\\UniversalOpAmp2 688 176 R0
SYMATTR InstName U2
SYMBOL LED 752 -16 R0
WINDOW 0 76 26 Left 2
SYMATTR InstName D1
SYMATTR Value NSPW500BS
SYMBOL res 640 256 R90
WINDOW 0 -17 72 VBottom 2
WINDOW 3 -23 61 VTop 2
SYMATTR InstName R7
SYMATTR Value 100k
SYMBOL res 640 400 R180
WINDOW 0 34 60 Left 2
WINDOW 3 31 40 Left 2
SYMATTR InstName R9
SYMATTR Value 3.3k
SYMBOL diode 368 144 M90
WINDOW 0 0 32 VBottom 2
WINDOW 3 32 32 VTop 2
SYMATTR InstName D3
SYMATTR Value 1N5817
SYMBOL voltage -112 192 R0
WINDOW 3 -238 112 Left 2
SYMATTR Value wavefile="u-got-that.wav" chan=0
SYMATTR InstName V4
SYMBOL cap 448 304 R0
SYMATTR InstName C3
SYMATTR Value 2.2µ
SYMBOL res 432 272 M0
SYMATTR InstName R10
SYMATTR Value 100k
SYMBOL res 640 320 R270
WINDOW 0 27 56 VTop 2
WINDOW 3 5 56 VBottom 2
SYMATTR InstName R6
SYMATTR Value 220k
SYMBOL res 752 64 R0
SYMATTR InstName R8
SYMATTR Value 1.3k
TEXT -128 424 Left 2 !.tran 184
TEXT -1072 -88 Left 2 ;100 mV voltage drop on 1N5817 at 30 uA\nusing shottky diode so the voltage drop is small
