Version 4.1
SHEET 1 952 680
WIRE 160 16 160 0
WIRE 208 16 160 16
WIRE 336 16 288 16
WIRE 608 48 592 48
WIRE 704 48 688 48
WIRE 160 144 160 16
WIRE 224 144 160 144
WIRE 336 160 336 16
WIRE 336 160 288 160
WIRE 368 160 368 144
WIRE 368 160 336 160
WIRE 384 160 368 160
WIRE 464 160 464 144
WIRE 464 160 448 160
WIRE 512 160 464 160
WIRE 592 160 592 48
WIRE 624 160 592 160
WIRE -96 176 -112 176
WIRE 16 176 -16 176
WIRE 48 176 16 176
WIRE 160 176 128 176
WIRE 224 176 160 176
WIRE 704 176 704 48
WIRE 704 176 688 176
WIRE 800 176 800 160
WIRE 800 176 784 176
WIRE 816 176 800 176
WIRE 880 176 864 176
WIRE -112 192 -112 176
WIRE 160 192 160 176
WIRE 624 192 592 192
WIRE 592 240 592 192
WIRE 592 240 576 240
WIRE 608 240 592 240
WIRE 464 256 464 160
WIRE 464 256 400 256
WIRE 800 256 800 176
WIRE 880 256 880 176
WIRE 880 256 864 256
WIRE 400 272 400 256
WIRE 464 272 464 256
WIRE 592 272 592 240
WIRE 16 320 16 176
WIRE 224 320 16 320
WIRE 336 320 336 160
WIRE 336 320 288 320
WIRE 400 368 400 352
WIRE 464 368 464 336
WIRE 464 368 400 368
WIRE -112 384 -112 272
WIRE 160 384 160 256
WIRE 464 384 464 368
WIRE 592 384 592 352
WIRE 880 384 880 256
FLAG -544 320 0
FLAG -640 320 0
FLAG -640 240 +VCC
FLAG 256 128 +VCC
FLAG -544 240 -VCC
FLAG 256 192 -VCC
FLAG 160 -80 0
FLAG 160 384 0
FLAG -112 384 0
FLAG 656 208 +VCC
FLAG 656 144 -VCC
FLAG 880 384 0
FLAG 368 144 wyjscie_filtra
FLAG 800 160 DIODA
FLAG 592 384 0
FLAG 496 240 +VCC
FLAG 464 384 0
FLAG 608 240 REF
FLAG 464 144 PO_DIODZIE
SYMBOL OpAmps\\UniversalOpAmp2 256 160 R0
SYMATTR InstName U1
SYMBOL voltage -640 224 R0
WINDOW 123 0 0 Left 0
WINDOW 39 0 0 Left 0
SYMATTR InstName V1
SYMATTR Value 12
SYMBOL voltage -544 224 R0
WINDOW 123 0 0 Left 0
WINDOW 39 0 0 Left 0
SYMATTR InstName V2
SYMATTR Value -12
SYMBOL cap 144 192 R0
SYMATTR InstName C2
SYMATTR Value 100n
SYMBOL res 0 160 R90
WINDOW 0 5 56 VBottom 2
WINDOW 3 27 56 VTop 2
SYMATTR InstName R1
SYMATTR Value 15k
SYMBOL res 304 0 R90
WINDOW 0 5 56 VBottom 2
WINDOW 3 27 56 VTop 2
SYMATTR InstName R3
SYMATTR Value 5.6k
SYMBOL res 144 -96 R0
SYMATTR InstName R4
SYMATTR Value 10k
SYMBOL res 144 160 R90
WINDOW 0 5 56 VBottom 2
WINDOW 3 27 56 VTop 2
SYMATTR InstName R2
SYMATTR Value 15k
SYMBOL voltage -112 176 R0
WINDOW 0 -57 28 Left 2
WINDOW 3 -182 81 Left 2
WINDOW 123 -182 109 Left 2
WINDOW 39 0 0 Left 0
SYMATTR InstName V3
SYMATTR Value SINE(0 2 100)
SYMBOL cap 288 304 R90
WINDOW 0 0 32 VBottom 2
WINDOW 3 32 32 VTop 2
SYMATTR InstName C1
SYMATTR Value 100n
SYMBOL OpAmps\\UniversalOpAmp2 656 176 M180
SYMATTR InstName U2
SYMBOL res 704 32 R90
WINDOW 0 5 56 VBottom 2
WINDOW 3 27 56 VTop 2
SYMATTR InstName R6
SYMATTR Value 100k
SYMBOL res 800 160 R90
WINDOW 0 5 56 VBottom 2
WINDOW 3 27 56 VTop 2
SYMATTR InstName R8
SYMATTR Value 1k
SYMBOL LED 800 192 R270
WINDOW 0 72 32 VTop 2
WINDOW 3 0 32 VBottom 2
SYMATTR InstName D1
SYMATTR Value NSPW500BS
SYMBOL res 608 144 R90
WINDOW 0 5 56 VBottom 2
WINDOW 3 27 56 VTop 2
SYMATTR InstName R5
SYMATTR Value 4.7k
SYMBOL res 592 224 R90
WINDOW 0 5 56 VBottom 2
WINDOW 3 27 56 VTop 2
SYMATTR InstName R7
SYMATTR Value 100k
SYMBOL res 608 368 R180
WINDOW 0 31 76 Left 2
WINDOW 3 31 40 Left 2
SYMATTR InstName R9
SYMATTR Value 10k
SYMBOL diode 864 240 R90
WINDOW 0 0 32 VBottom 2
WINDOW 3 32 32 VTop 2
SYMATTR InstName D2
SYMATTR Value 1N4007
SYMBOL diode 384 176 R270
WINDOW 0 32 32 VTop 2
WINDOW 3 0 32 VBottom 2
SYMATTR InstName D3
SYMATTR Value 1N4007
SYMBOL cap 480 336 R180
WINDOW 0 24 56 Left 2
WINDOW 3 24 8 Left 2
SYMATTR InstName C3
SYMATTR Value 2.2n
SYMBOL res 416 256 M0
SYMATTR InstName R10
SYMATTR Value 100k
TEXT -128 424 Left 2 !.tran 0.2
